/*--------------------------------*- C++ -*----------------------------------*\
  =========                 |
  \\      /  F ield         | OpenFOAM: The Open Source CFD Toolbox
   \\    /   O peration     | Website:  https://openfoam.org
    \\  /    A nd           | Version:  9
     \\/     M anipulation  |
\*---------------------------------------------------------------------------*/
FoamFile
{
    format      ascii;
    class       volScalarField;
    object      Hadh;
}
// * * * * * * * * * * * * * * * * * * * * * * * * * * * * * * * * * * * * * //

dimensions      [0 0 0 0 0 0 0];

internalField  #codeStream
    {
	// Get length and adhesion parameters
	#include "$FOAM_CASE/constant/inputParameters"

    code
    #{
        const IOdictionary& d = static_cast<const IOdictionary&>(dict);
        const fvMesh& mesh = refCast<const fvMesh>(d.db());
        scalarField fld(mesh.nCells(), 0);

        forAll(mesh.C(),cellI)
        {
            vector CC = mesh.C()[cellI];
            
            if( CC.y() >= $bot_edge_Adh && CC.y() <= $top_edge_Adh )
            {
                // Left side of channel
                if(CC.x() >= $l_edge_leftAdh && CC.x() <= $r_edge_leftAdh)
                { 
                    fld[cellI] = 1.;
                }
                // Right side of channel
                if(CC.x() >= $l_edge_rightAdh && CC.x() <= $r_edge_rightAdh)
                { 
                    fld[cellI] = 1.;
                }
            }

        }

        
            fld.writeEntry("", os);
    #};

    //- Optional:
    codeInclude
    #{
        #include "fvCFD.H"
    #};

    //- Optional:
    codeOptions
    #{
        -I$(LIB_SRC)/finiteVolume/lnInclude  \
        -I$(LIB_SRC)/meshTools/lnInclude \
    #};
};


boundaryField
{
    inletVessel
    {
        type            zeroGradient;
    }
    
    outletVessel
    {
        type            zeroGradient;
    }

    outletExt
    {
        type            zeroGradient;
    }
    
    fixedWalls
    {
        type            zeroGradient;
    }
   
    injuryWalls
    {
        type            zeroGradient;
    }
    
    frontAndBack
    {
        type            empty;
    }
}

// ************************************************************************* //
