/*--------------------------------*- C++ -*----------------------------------*\
  =========                 |
  \\      /  F ield         | OpenFOAM: The Open Source CFD Toolbox
   \\    /   O peration     | Website:  https://openfoam.org
    \\  /    A nd           | Version:  9
     \\/     M anipulation  |
\*---------------------------------------------------------------------------*/
FoamFile
{
    format      ascii;
    class       volScalarField;
    object      p;
}
// * * * * * * * * * * * * * * * * * * * * * * * * * * * * * * * * * * * * * //

#include "$FOAM_CASE/constant/inputParameters"

dimensions      [0 2 -2 0 0 0 0];

internalField   uniform $PL0;

boundaryField
{
    // Get the kinematic pressure at the outlet
    
    
    inletLeft
    {
        type            zeroGradient;
    }

    inletRight
    {
        type            zeroGradient;
    }
    
    outletLeft
    {
        type            fixedValue;
	    value           uniform $PL0;
    }

    outletRight
    {
        type            fixedValue;
	    value           uniform $PR0;
    }

    injuryWalls
    {
        type            zeroGradient;
    }
    
    fixedWalls
    {
        type            zeroGradient;
    }

    leftChannelInnerWall
    {
        type            zeroGradient;
    }

    rightChannelInnerWall
    {
        type            zeroGradient;
    }
}
// ************************************************************************* //
